Privet.

Here goes an example of a source code committed to GitHub.

We will modify few lines of text in this documet later to exercise code review.

That's it for now.

-------------------

New line.

-------------------

Another line.
Another line.
